# DIS package for  MODFLOW-2005, generated by Flopy.
         1       275       182         1         4         1
  0
CONSTANT    2.500000E+03                           #delr                          
CONSTANT    2.500000E+03                           #delc                          
INTERNAL               1 (182E15.6) -1 #model_top                     
   6.728084E+01   6.643165E+01   7.144705E+01   7.209435E+01   6.162296E+01   6.221522E+01   5.470866E+01   4.124484E+01   4.194751E+01   4.305512E+01   3.603649E+01   3.256207E+01   5.664042E+01   7.522310E+01   4.875663E+01   5.620404E+01   6.898688E+01   6.855697E+01   6.378770E+01   6.168400E+01   5.857666E+01   6.913911E+01   7.544882E+01   8.260367E+01   8.532813E+01   8.044619E+01   7.877165E+01   7.646194E+01   7.025197E+01   6.506562E+01   6.250420E+01   6.047769E+01   6.169554E+01   6.183202E+01   6.102362E+01   6.013123E+01   5.820862E+01   6.041470E+01   6.070866E+01   6.563255E+01   7.263517E+01   7.728084E+01   7.394751E+01   7.541200E+01   7.728609E+01   7.483465E+01   7.572703E+01   7.774278E+01   7.701588E+01   7.127703E+01   6.637270E+01   7.578950E+01   8.701563E+01   7.725697E+01   9.224672E+01   1.069208E+02   9.046942E+01   8.224672E+01   8.209961E+01   8.675358E+01   9.687664E+01   1.362520E+02   1.470700E+02   1.364147E+02   1.451759E+02   1.182362E+02   7.032021E+01   8.265617E+01   1.023307E+02   9.354856E+01   7.444094E+01   1.059055E+02   1.152703E+02   1.388084E+02   1.414173E+02   1.459423E+02   1.488976E+02   1.506461E+02   1.490679E+02   1.577165E+02   1.665302E+02   1.420210E+02   1.222992E+02   1.491916E+02   1.396063E+02   1.383360E+02   1.422362E+02   1.388819E+02   1.407926E+02   1.646037E+02   1.673438E+02   1.593753E+02   1.413015E+02   1.514803E+02   1.555359E+02   1.593828E+02   1.641258E+02   1.637375E+02   1.591469E+02   1.541053E+02   1.508767E+02   1.509186E+02   1.510339E+02   1.584080E+02   1.582874E+02   1.574803E+02   1.573281E+02   1.547927E+02   1.442415E+02   1.399318E+02   1.368451E+02   1.411601E+02   1.575171E+02   1.611490E+02   1.466037E+02   1.448241E+02   1.443307E+02   1.446089E+02   1.470184E+02   1.476378E+02   1.477113E+02   1.334977E+02   1.375538E+02   1.332336E+02   1.162520E+02   1.157900E+02   1.203885E+02   1.433192E+02   1.200315E+02   1.413543E+02   1.445984E+02   1.323989E+02   1.089081E+02   1.115118E+02   9.523885E+01   8.548556E+01   8.625569E+01   8.819947E+01   8.223588E+01   8.213123E+01   8.876611E+01   8.491338E+01   9.912748E+01   1.184619E+02   1.385971E+02   1.405529E+02   1.309453E+02   1.009081E+02   9.514436E+01   1.094346E+02   1.435551E+02   1.235276E+02   9.828369E+01   7.936383E+01   7.456168E+01   8.045144E+01   9.814173E+01   9.841471E+01   9.817323E+01   9.661942E+01   8.714436E+01   8.520735E+01   7.999799E+01   8.179527E+01   8.096232E+01   7.311661E+01   6.858793E+01   7.230446E+01   5.881365E+01   5.276115E+01   4.571653E+01   5.023983E+01   4.534908E+01   4.244161E+01   3.166587E+01   2.816273E+01   2.469291E+01   1.970079E+01   7.979003E+00   8.866142E+00   6.142403E+00   2.366246E+00
   6.640945E+01   5.782349E+01   5.865680E+01   6.223097E+01   5.995656E+01   5.054904E+01   5.007874E+01   5.303937E+01   4.616798E+01   5.447244E+01   3.303412E+01   4.107612E+01   6.516463E+01   7.652493E+01   5.429396E+01   6.938058E+01   7.374529E+01   6.844094E+01   6.980052E+01   6.537533E+01   5.889764E+01   6.754114E+01   7.938583E+01   8.321260E+01   8.373753E+01   8.168504E+01   7.921260E+01   7.659499E+01   7.163779E+01   6.557480E+01   6.325984E+01   6.388451E+01   6.858793E+01   6.638320E+01   6.579030E+01   6.572162E+01   6.003674E+01   6.144499E+01   6.685890E+01   6.707902E+01   6.937008E+01   7.334197E+01   8.031769E+01   7.889239E+01   7.945293E+01   8.004516E+01   7.472558E+01   7.523360E+01   7.697113E+01   7.367979E+01   7.276115E+01   7.728084E+01   8.448688E+01   8.129134E+01   9.927559E+01   1.031339E+02   1.003255E+02   8.723884E+01   8.462467E+01   8.659843E+01   9.508661E+01   1.149974E+02   1.495276E+02   1.474016E+02   1.355328E+02   1.001760E+02   7.483465E+01   7.155381E+01   7.123884E+01   7.553281E+01   8.083990E+01   8.415748E+01   1.052283E+02   1.223832E+02   1.279528E+02   1.538583E+02   1.677428E+02   1.648451E+02   1.600157E+02   1.642152E+02   1.722101E+02   1.673438E+02   1.419318E+02   1.377324E+02   1.569405E+02   1.497604E+02   1.473018E+02   1.450948E+02   1.533085E+02   1.716309E+02   1.660630E+02   1.475697E+02   1.428189E+02   1.609396E+02   1.627717E+02   1.615328E+02   1.620367E+02   1.637953E+02   1.598425E+02   1.496326E+02   1.479528E+02   1.500158E+02   1.517270E+02   1.598898E+02   1.599370E+02   1.574646E+02   1.550761E+02   1.526877E+02   1.483675E+02   1.414908E+02   1.380630E+02   1.422467E+02   1.581837E+02   1.611759E+02   1.521817E+02   1.444567E+02   1.431601E+02   1.464095E+02   1.476378E+02   1.476431E+02   1.511129E+02   1.488504E+02   1.512336E+02   1.409032E+02   1.392336E+02   1.288924E+02   1.405835E+02   1.661470E+02   1.666562E+02   1.536597E+02   1.387963E+02   1.323360E+02   1.460026E+02   1.088014E+02   8.951557E+01   8.777428E+01   8.889714E+01   8.870322E+01   8.626617E+01   9.202100E+01   9.143376E+01   9.126700E+01   9.450919E+01   9.285039E+01   1.149029E+02   1.451286E+02   1.380735E+02   9.948031E+01   9.514436E+01   9.709711E+01   1.309820E+02   1.363937E+02   1.040000E+02   9.682670E+01   6.992126E+01   9.238845E+01   9.837270E+01   9.842519E+01   9.825748E+01   9.620997E+01   8.536997E+01   8.441611E+01   7.873491E+01   7.465092E+01   7.323360E+01   7.095538E+01   5.773440E+01   5.888189E+01   4.922835E+01   4.558005E+01   3.992651E+01   5.123360E+01   4.846719E+01   4.192242E+01   3.253018E+01   2.497841E+01   2.346982E+01   1.829396E+01   6.572179E+00   9.019689E+00   7.769029E+00   8.896740E+00
   6.454947E+01   5.461417E+01   5.630971E+01   6.244619E+01   5.536943E+01   4.063517E+01   3.981627E+01   4.306628E+01   4.039008E+01   4.374278E+01   4.024672E+01   4.517585E+01   5.694488E+01   7.688943E+01   6.629921E+01   6.468617E+01   6.557480E+01   6.321260E+01   6.668412E+01   5.476640E+01   6.009449E+01   6.324934E+01   7.597375E+01   7.760630E+01   8.388678E+01   8.262895E+01   7.986877E+01   7.852004E+01   7.290173E+01   6.926509E+01   6.523945E+01   6.561156E+01   6.560632E+01   6.404199E+01   6.215776E+01   6.621618E+01   6.069816E+01   6.555380E+01   7.036745E+01   6.542782E+01   6.531233E+01   6.815223E+01   7.232044E+01   7.924409E+01   8.304100E+01   8.177953E+01   7.653018E+01   7.372178E+01   7.462992E+01   7.700263E+01   7.810499E+01   7.693963E+01   7.702613E+01   8.142257E+01   8.822572E+01   9.246719E+01   9.472441E+01   8.779528E+01   8.363779E+01   8.796325E+01   9.261942E+01   9.611024E+01   9.633596E+01   9.091339E+01   8.582677E+01   7.919685E+01   7.804199E+01   7.831040E+01   6.792126E+01   7.945293E+01   8.160696E+01   1.122205E+02   1.151072E+02   1.385605E+02   1.379577E+02   1.460052E+02   1.623806E+02   1.677840E+02   1.695031E+02   1.738740E+02   1.742677E+02   1.623097E+02   1.513858E+02   1.379738E+02   1.584147E+02   1.587507E+02   1.574856E+02   1.534803E+02   1.617743E+02   1.699580E+02   1.626614E+02   1.532388E+02   1.493281E+02   1.577270E+02   1.640420E+02   1.641995E+02   1.641680E+02   1.629554E+02   1.556512E+02   1.432808E+02   1.456325E+02   1.494908E+02   1.512021E+02   1.577743E+02   1.600630E+02   1.572861E+02   1.525119E+02   1.533806E+02   1.461260E+02   1.410026E+02   1.378950E+02   1.391549E+02   1.515223E+02   1.584462E+02   1.529344E+02   1.497884E+02   1.430131E+02   1.451955E+02   1.475592E+02   1.477217E+02   1.511549E+02   1.527110E+02   1.528913E+02   1.433245E+02   1.393386E+02   1.320040E+02   1.415059E+02   1.535066E+02   1.609813E+02   1.435433E+02   1.295879E+02   1.116693E+02   1.250236E+02   1.239685E+02   9.516535E+01   8.892858E+01   9.187927E+01   8.727559E+01   8.932283E+01   9.160630E+01   8.146982E+01   7.996850E+01   7.982152E+01   8.096063E+01   9.855601E+01   1.408294E+02   1.517848E+02   1.073596E+02   9.717585E+01   9.735958E+01   1.273071E+02   1.315958E+02   1.101567E+02   9.646719E+01   6.526509E+01   8.426247E+01   9.121785E+01   9.782152E+01   9.814218E+01   9.528062E+01   8.449869E+01   8.307611E+01   8.217323E+01   7.226772E+01   6.388451E+01   6.837795E+01   5.461603E+01   4.118635E+01   4.001575E+01   4.169706E+01   3.776110E+01   5.338058E+01   5.239386E+01   4.326935E+01   3.875689E+01   2.136739E+01   1.541732E+01   9.387284E+00   5.829116E+00   1.420824E+01   1.253543E+01   9.957821E+00
   7.109538E+01   6.742257E+01   6.016273E+01   5.093963E+01   5.916553E+01   5.728851E+01   4.275591E+01   3.794226E+01   4.329659E+01   3.292933E+01   4.575328E+01   3.819423E+01   5.604681E+01   6.651444E+01   6.556439E+01   6.588409E+01   6.861942E+01   7.566896E+01   7.114601E+01   6.207874E+01   5.906036E+01   6.217349E+01   6.943221E+01   7.140682E+01   7.891892E+01   8.162205E+01   8.140157E+01   7.993893E+01   7.449869E+01   6.937008E+01   6.794751E+01   6.607948E+01   6.501312E+01   6.427821E+01   6.254593E+01   6.353806E+01   6.304987E+01   6.830971E+01   6.558530E+01   6.346982E+01   6.265142E+01   6.176378E+01   7.377953E+01   8.500262E+01   7.880315E+01   7.715486E+01   7.535958E+01   7.676116E+01   7.590551E+01   7.630971E+01   8.091339E+01   7.516010E+01   7.263064E+01   8.292768E+01   8.297638E+01   8.681123E+01   8.551672E+01   8.709186E+01   9.004491E+01   8.535425E+01   8.576304E+01   8.524934E+01   8.753449E+01   8.839400E+01   9.032546E+01   1.026966E+02   9.351966E+01   1.004672E+02   8.863517E+01   8.222572E+01   8.146457E+01   1.035171E+02   8.730184E+01   1.370446E+02   1.419226E+02   1.415066E+02   1.625564E+02   1.701890E+02   1.739633E+02   1.782152E+02   1.784095E+02   1.737848E+02   1.653018E+02   1.637013E+02   1.478110E+02   1.477795E+02   1.644409E+02   1.662257E+02   1.671496E+02   1.722152E+02   1.658950E+02   1.615368E+02   1.549974E+02   1.586089E+02   1.640420E+02   1.641155E+02   1.640052E+02   1.591654E+02   1.475591E+02   1.419160E+02   1.419370E+02   1.483990E+02   1.506671E+02   1.557194E+02   1.600315E+02   1.565160E+02   1.500591E+02   1.395877E+02   1.410184E+02   1.408193E+02   1.389588E+02   1.378267E+02   1.507402E+02   1.604257E+02   1.545559E+02   1.497113E+02   1.418373E+02   1.412910E+02   1.417638E+02   1.463465E+02   1.461680E+02   1.481304E+02   1.435801E+02   1.216955E+02   1.392703E+02   1.022677E+02   1.001260E+02   1.325564E+02   1.345512E+02   1.155958E+02   1.362152E+02   1.309034E+02   1.343465E+02   1.298793E+02   1.209764E+02   9.461417E+01   8.849869E+01   9.033316E+01   1.094173E+02   9.362448E+01   8.666667E+01   8.122310E+01   7.926509E+01   8.429396E+01   8.650918E+01   1.127139E+02   1.519213E+02   1.216898E+02   1.243570E+02   9.950656E+01   1.082310E+02   1.161260E+02   1.135958E+02   1.044514E+02   7.023932E+01   7.162730E+01   8.550623E+01   9.716937E+01   9.208364E+01   9.380577E+01   8.686364E+01   8.598840E+01   8.436370E+01   7.882940E+01   6.062216E+01   4.984675E+01   4.128303E+01   3.362205E+01   3.311237E+01   3.358530E+01   3.871916E+01   5.119160E+01   4.452718E+01   5.044619E+01   3.738058E+01   2.219948E+01   1.544882E+01   8.314961E+00   7.882401E+00   8.113004E+00   1.257743E+01   1.141819E+01
   5.807192E+01   5.607825E+01   5.702687E+01   5.298688E+01   4.829396E+01   4.601561E+01   3.723884E+01   4.510893E+01   3.301280E+01   3.270341E+01   4.121785E+01   3.177953E+01   5.486089E+01   8.097113E+01   6.821522E+01   6.935506E+01   7.232546E+01   7.462992E+01   6.982826E+01   6.395800E+01   5.719685E+01   6.643832E+01   7.354856E+01   7.071391E+01   7.461282E+01   7.844619E+01   8.127034E+01   7.940157E+01   7.774644E+01   7.222047E+01   6.909711E+01   6.855062E+01   6.594751E+01   6.313386E+01   6.900262E+01   6.349081E+01   5.851968E+01   6.890289E+01   7.745201E+01   6.750131E+01   6.568504E+01   6.307493E+01   8.114052E+01   8.743832E+01   7.285456E+01   7.643570E+01   7.827895E+01   7.751706E+01   7.487757E+01   6.879806E+01   7.602100E+01   8.368238E+01   7.439016E+01   8.428709E+01   8.425197E+01   8.740157E+01   9.023622E+01   8.855643E+01   9.272441E+01   8.470341E+01   8.764305E+01   8.598950E+01   8.887139E+01   9.007874E+01   1.050551E+02   1.254331E+02   1.319528E+02   1.408031E+02   1.129081E+02   1.124042E+02   1.149974E+02   1.196745E+02   9.571129E+01   1.149659E+02   1.247979E+02   1.413648E+02   1.510131E+02   1.648871E+02   1.809764E+02   1.812703E+02   1.847139E+02   1.825564E+02   1.759055E+02   1.699066E+02   1.629449E+02   1.519265E+02   1.656430E+02   1.715328E+02   1.692829E+02   1.737168E+02   1.702520E+02   1.660650E+02   1.619351E+02   1.591076E+02   1.638219E+02   1.640420E+02   1.632821E+02   1.564357E+02   1.444723E+02   1.410761E+02   1.430415E+02   1.456325E+02   1.478425E+02   1.532913E+02   1.573858E+02   1.512074E+02   1.428819E+02   1.366527E+02   1.413438E+02   1.387297E+02   1.473176E+02   1.446457E+02   1.527507E+02   1.493018E+02   1.449554E+02   1.451706E+02   1.411181E+02   1.410761E+02   1.410761E+02   1.432039E+02   1.435223E+02   1.467139E+02   1.391601E+02   1.028871E+02   1.076063E+02   9.671391E+01   9.514961E+01   1.014488E+02   1.436558E+02   1.241837E+02   1.224357E+02   1.308451E+02   1.230656E+02   1.346037E+02   1.081472E+02   8.899213E+01   8.888666E+01   9.803150E+01   1.016903E+02   9.149606E+01   8.860888E+01   8.318973E+01   8.363521E+01   8.420997E+01   8.238262E+01   9.896502E+01   1.481506E+02   1.518478E+02   1.354788E+02   9.024406E+01   8.308845E+01   9.577428E+01   1.029743E+02   1.163336E+02   9.256056E+01   5.807874E+01   9.119267E+01   9.529134E+01   9.095538E+01   9.604199E+01   8.913298E+01   8.786352E+01   8.483989E+01   7.760630E+01   6.670341E+01   5.710761E+01   3.342159E+01   2.864567E+01   4.165354E+01   4.197375E+01   3.475591E+01   4.248819E+01   4.880904E+01   5.126509E+01   3.214173E+01   2.711286E+01   2.491864E+01   1.954856E+01   1.373131E+01   1.387927E+01   1.521260E+01   1.293438E+01
   4.763527E+01   5.040085E+01   4.766156E+01   5.133858E+01   4.837795E+01   4.576351E+01   2.913386E+01   4.119160E+01   3.004199E+01   2.219423E+01   2.911811E+01   4.361309E+01   5.505512E+01   7.826247E+01   6.397112E+01   6.651968E+01   6.955381E+01   6.800382E+01   6.519160E+01   6.597375E+01   6.753281E+01   6.752231E+01   7.734383E+01   7.265617E+01   7.505447E+01   7.648294E+01   7.956955E+01   8.310236E+01   7.999799E+01   7.538058E+01   7.164390E+01   7.186402E+01   7.007161E+01   6.942257E+01   7.056950E+01   6.754023E+01   6.486089E+01   7.293438E+01   7.195312E+01   6.986197E+01   6.814173E+01   7.630971E+01   8.790026E+01   8.979003E+01   7.679790E+01   7.765879E+01   7.857191E+01   7.605249E+01   6.954960E+01   7.102177E+01   7.579528E+01   7.961820E+01   7.647932E+01   8.441328E+01   8.830971E+01   9.078215E+01   8.838320E+01   9.159580E+01   9.051969E+01   8.580577E+01   8.959055E+01   8.979528E+01   8.953281E+01   9.314961E+01   1.025617E+02   1.109921E+02   1.359003E+02   1.391864E+02   1.465564E+02   1.581260E+02   1.625144E+02   1.501470E+02   1.459528E+02   1.182520E+02   1.176962E+02   1.262100E+02   1.412858E+02   1.716519E+02   1.777261E+02   1.750656E+02   1.855561E+02   1.844136E+02   1.790499E+02   1.719349E+02   1.631458E+02   1.535391E+02   1.601575E+02   1.699381E+02   1.725879E+02   1.738845E+02   1.714173E+02   1.672913E+02   1.637533E+02   1.634655E+02   1.666457E+02   1.668976E+02   1.664738E+02   1.573228E+02   1.440367E+02   1.413701E+02   1.458793E+02   1.466824E+02   1.489344E+02   1.504252E+02   1.527244E+02   1.459265E+02   1.381470E+02   1.269465E+02   1.316535E+02   1.365617E+02   1.514908E+02   1.667454E+02   1.685092E+02   1.543517E+02   1.561837E+02   1.504514E+02   1.491601E+02   1.427480E+02   1.422520E+02   1.426299E+02   1.442677E+02   1.459318E+02   1.288136E+02   1.175223E+02   1.006526E+02   9.852477E+01   9.514436E+01   9.521785E+01   1.090277E+02   1.309715E+02   1.197245E+02   1.370079E+02   1.457907E+02   1.437123E+02   9.810026E+01   8.867717E+01   8.858268E+01   8.755545E+01   8.981430E+01   8.794751E+01   8.634479E+01   8.218373E+01   8.119293E+01   7.877160E+01   7.764830E+01   7.909711E+01   1.128609E+02   1.623465E+02   1.528661E+02   1.205997E+02   9.018898E+01   8.366404E+01   1.117060E+02   1.305617E+02   1.052388E+02   8.206292E+01   6.164829E+01   8.369554E+01   7.644619E+01   9.014173E+01   9.107087E+01   8.680599E+01   8.473491E+01   7.545932E+01   6.548031E+01   5.318524E+01   2.835883E+01   2.762509E+01   3.937008E+01   3.957448E+01   3.712695E+01   4.819423E+01   5.363938E+01   4.891863E+01   2.886089E+01   2.376903E+01   2.389501E+01   1.870498E+01   1.648819E+01   1.640420E+01   1.640420E+01   1.360105E+01
   4.534194E+01   4.654593E+01   5.010499E+01   4.577953E+01   4.201575E+01   3.327034E+01   2.891240E+01   1.951181E+01   2.013721E+01   1.715486E+01   1.671916E+01   3.563255E+01   4.838187E+01   5.395800E+01   5.683465E+01   6.230975E+01   6.271391E+01   6.225197E+01   6.532330E+01   6.329659E+01   6.680125E+01   7.075294E+01   7.338390E+01   7.518110E+01   7.384510E+01   7.587860E+01   7.895538E+01   8.104618E+01   8.033852E+01   7.633596E+01   7.251443E+01   7.240420E+01   7.545406E+01   7.157480E+01   7.435519E+01   6.719160E+01   7.071916E+01   8.341207E+01   8.267192E+01   7.598425E+01   7.456168E+01   8.504462E+01   8.283465E+01   9.021522E+01   8.729134E+01   8.459318E+01   7.631496E+01   7.120735E+01   7.237270E+01   7.122835E+01   7.612598E+01   8.218373E+01   7.961680E+01   8.305512E+01   8.877721E+01   8.496588E+01   8.896063E+01   9.236220E+01   8.847769E+01   8.616798E+01   8.487208E+01   8.945932E+01   8.785302E+01   9.898074E+01   1.209869E+02   1.324076E+02   1.411076E+02   1.591417E+02   1.630026E+02   1.545978E+02   8.580497E+01   8.625722E+01   8.650726E+01   9.245574E+01   1.406772E+02   1.456850E+02   1.377480E+02   1.650394E+02   1.677743E+02   1.684672E+02   1.839314E+02   1.851654E+02   1.836693E+02   1.721942E+02   1.656903E+02   1.651129E+02   1.689134E+02   1.699633E+02   1.738793E+02   1.738845E+02   1.733071E+02   1.689291E+02   1.668451E+02   1.666352E+02   1.656588E+02   1.668819E+02   1.643570E+02   1.520402E+02   1.435958E+02   1.421785E+02   1.426667E+02   1.497008E+02   1.541417E+02   1.521732E+02   1.433333E+02   1.339265E+02   1.292913E+02   1.184614E+02   1.205722E+02   1.192441E+02   1.378373E+02   1.590814E+02   1.676640E+02   1.669979E+02   1.648439E+02   1.632034E+02   1.665617E+02   1.405206E+02   1.394174E+02   1.395038E+02   1.406299E+02   1.484659E+02   1.438119E+02   1.474803E+02   1.273186E+02   1.125548E+02   9.778056E+01   9.729659E+01   1.066299E+02   1.246037E+02   1.072493E+02   1.183045E+02   1.452073E+02   1.470351E+02   1.047139E+02   8.903412E+01   8.862992E+01   9.308137E+01   1.491391E+02   9.989267E+01   8.416798E+01   7.857218E+01   7.996850E+01   7.888714E+01   7.843045E+01   7.825275E+01   9.685564E+01   1.424252E+02   1.561732E+02   1.508399E+02   1.346299E+02   1.069155E+02   1.008451E+02   9.874016E+01   8.375575E+01   7.242520E+01   5.704462E+01   5.208464E+01   7.074541E+01   8.464567E+01   7.418898E+01   8.180577E+01   8.343380E+01   7.614698E+01   5.754048E+01   4.023097E+01   2.246194E+01   3.253587E+01   4.332283E+01   3.791601E+01   3.542888E+01   4.316010E+01   5.033416E+01   4.404279E+01   3.452992E+01   2.232021E+01   1.996805E+01   2.857895E+01   1.640420E+01   1.640420E+01   1.604724E+01   1.353078E+01
   4.537264E+01   4.697113E+01   4.550200E+01   4.338583E+01   3.986273E+01   3.194888E+01   2.723360E+01   1.567454E+01   1.213806E+01   9.543307E+00   2.138311E+01   3.427587E+01   4.589501E+01   5.137533E+01   5.604681E+01   5.864042E+01   5.947507E+01   6.085564E+01   6.341207E+01   6.391601E+01   6.876598E+01   7.129134E+01   7.580107E+01   7.738583E+01   7.680315E+01   7.923439E+01   8.159055E+01   8.386352E+01   8.231496E+01   7.820473E+01   7.283569E+01   7.229396E+01   7.577428E+01   7.112861E+01   7.405249E+01   7.793176E+01   6.979003E+01   7.125984E+01   8.623772E+01   8.190551E+01   7.986877E+01   8.210499E+01   8.393176E+01   9.497638E+01   8.302887E+01   8.375328E+01   8.009974E+01   7.321260E+01   7.318474E+01   7.301703E+01   7.535433E+01   8.229877E+01   8.431654E+01   8.183232E+01   8.971129E+01   8.838352E+01   8.308491E+01   8.952231E+01   8.401780E+01   8.370859E+01   8.476115E+01   8.730709E+01   8.775328E+01   1.002940E+02   1.062152E+02   1.317060E+02   1.539003E+02   1.582403E+02   1.508136E+02   1.572126E+02   1.355853E+02   1.168714E+02   9.076115E+01   9.314436E+01   1.434016E+02   1.566404E+02   1.518688E+02   1.406247E+02   1.528399E+02   1.625459E+02   1.793806E+02   1.873963E+02   1.871549E+02   1.825932E+02   1.779633E+02   1.746352E+02   1.736483E+02   1.708031E+02   1.670713E+02   1.736640E+02   1.757165E+02   1.726772E+02   1.694068E+02   1.677848E+02   1.652231E+02   1.649081E+02   1.594908E+02   1.482520E+02   1.445928E+02   1.385185E+02   1.412700E+02   1.557480E+02   1.547131E+02   1.444565E+02   1.379055E+02   1.259769E+02   1.182360E+02   1.074187E+02   1.107612E+02   1.236971E+02   1.417260E+02   1.557875E+02   1.596010E+02   1.575276E+02   1.605092E+02   1.688084E+02   1.607874E+02   1.379947E+02   1.377953E+02   1.377953E+02   1.377953E+02   1.391706E+02   1.483990E+02   1.458768E+02   1.517060E+02   1.363990E+02   1.133386E+02   1.088871E+02   1.364252E+02   1.112073E+02   1.046410E+02   1.172966E+02   1.270236E+02   1.313963E+02   1.098583E+02   1.184619E+02   9.227231E+01   1.342677E+02   1.477008E+02   1.172073E+02   8.612073E+01   7.852494E+01   8.315304E+01   8.197375E+01   7.830446E+01   7.866154E+01   8.689764E+01   9.970923E+01   1.349869E+02   1.527163E+02   1.267454E+02   1.033438E+02   8.979003E+01   1.187968E+02   1.082257E+02   9.027297E+01   7.984076E+01   8.998201E+01   5.368838E+01   6.829921E+01   6.010855E+01   7.689828E+01   7.833136E+01   6.627297E+01   4.446429E+01   2.551823E+01   2.406648E+01   3.532808E+01   4.260375E+01   3.805984E+01   3.645669E+01   4.501837E+01   4.874091E+01   4.816273E+01   4.929659E+01   2.583202E+01   2.173099E+01   3.891863E+01   1.809974E+01   1.665617E+01   1.374803E+01   1.102174E+01
   4.625146E+01   4.414983E+01   4.231496E+01   3.904987E+01   3.652563E+01   3.230365E+01   2.594226E+01   1.698255E+01   1.220997E+01   1.063517E+01   2.398950E+01   3.719337E+01   4.848819E+01   5.159580E+01   5.534840E+01   5.074261E+01   5.808924E+01   6.176378E+01   6.207874E+01   6.156430E+01   6.664567E+01   7.223097E+01   7.478740E+01   7.792651E+01   8.018604E+01   8.541207E+01   8.728084E+01   8.753806E+01   8.375853E+01   8.057218E+01   7.518066E+01   7.186351E+01   7.340682E+01   7.259842E+01   7.138583E+01   7.641841E+01   7.371129E+01   7.035986E+01   7.813221E+01   8.155380E+01   8.535433E+01   8.441087E+01   8.907533E+01   8.964829E+01   8.040154E+01   8.288051E+01   7.953154E+01   7.718110E+01   7.084514E+01   7.497638E+01   7.462992E+01   7.700787E+01   8.283464E+01   9.020473E+01   8.475591E+01   9.182677E+01   8.917060E+01   8.523885E+01   8.194226E+01   8.200525E+01   8.786877E+01   9.067192E+01   9.214698E+01   9.227297E+01   1.239318E+02   1.157375E+02   1.259213E+02   1.428136E+02   1.696850E+02   1.703675E+02   1.669186E+02   1.535591E+02   1.405669E+02   1.076588E+02   1.039721E+02   1.477375E+02   1.744409E+02   1.709921E+02   1.834856E+02   1.739265E+02   1.777628E+02   1.822362E+02   1.870131E+02   1.872024E+02   1.826788E+02   1.767566E+02   1.692178E+02   1.617307E+02   1.651636E+02   1.702415E+02   1.736015E+02   1.727525E+02   1.681090E+02   1.595433E+02   1.545663E+02   1.527163E+02   1.515895E+02   1.459895E+02   1.385722E+02   1.347870E+02   1.317953E+02   1.540840E+02   1.500892E+02   1.370341E+02   1.234856E+02   1.185512E+02   1.177743E+02   1.103570E+02   1.160663E+02   1.357008E+02   1.500105E+02   1.529501E+02   1.503517E+02   1.451339E+02   1.553491E+02   1.666048E+02   1.626299E+02   1.377953E+02   1.377953E+02   1.377953E+02   1.377953E+02   1.377953E+02   1.453685E+02   1.461102E+02   1.502520E+02   1.324462E+02   1.133018E+02   1.220945E+02   1.260084E+02   1.242631E+02   1.037218E+02   1.037690E+02   1.099948E+02   1.005407E+02   1.031997E+02   1.113491E+02   8.565354E+01   1.193491E+02   1.082730E+02   1.004272E+02   9.035696E+01   8.546431E+01   8.738774E+01   9.777428E+01   9.044846E+01   7.986172E+01   8.001895E+01   9.170604E+01   1.068055E+02   1.343205E+02   1.125391E+02   8.536483E+01   1.073558E+02   1.287900E+02   1.193261E+02   9.779528E+01   9.268766E+01   9.462992E+01   7.111980E+01   3.695538E+01   4.486614E+01   6.376378E+01   6.212632E+01   4.084514E+01   2.888714E+01   1.814698E+01   2.648294E+01   4.084279E+01   4.634121E+01   4.068766E+01   4.137008E+01   4.822572E+01   5.254061E+01   4.883989E+01   5.053543E+01   3.386352E+01   3.454840E+01   2.949611E+01   2.055118E+01   1.812074E+01   1.443360E+01   1.093791E+01
   4.481365E+01   4.093940E+01   3.606821E+01   3.716010E+01   3.391601E+01   2.994226E+01   2.485564E+01   1.615748E+01   9.994995E+00   1.223097E+01   2.436444E+01   3.891339E+01   4.716535E+01   5.265092E+01   5.412073E+01   5.373228E+01   5.683989E+01   5.845048E+01   6.088482E+01   6.185302E+01   6.526565E+01   7.081059E+01   7.196360E+01   7.724409E+01   8.202100E+01   8.519702E+01   8.805774E+01   8.851969E+01   8.360901E+01   8.184252E+01   8.053781E+01   7.720456E+01   7.505052E+01   7.050919E+01   7.676640E+01   7.837795E+01   7.973228E+01   7.800000E+01   7.394226E+01   7.061942E+01   8.423097E+01   8.870886E+01   8.871391E+01   8.483989E+01   8.118635E+01   8.369029E+01   8.167979E+01   8.488714E+01   7.507612E+01   7.745932E+01   7.530709E+01   7.457743E+01   7.921785E+01   8.170079E+01   7.972703E+01   9.050394E+01   9.197900E+01   8.701312E+01   8.721785E+01   8.127034E+01   8.611679E+01   8.613648E+01   9.901312E+01   1.166667E+02   1.125722E+02   9.352756E+01   1.289921E+02   1.565354E+02   1.450709E+02   1.410289E+02   1.457353E+02   1.517585E+02   1.672442E+02   1.441578E+02   1.335973E+02   1.565249E+02   1.752367E+02   1.801999E+02   1.883727E+02   1.887584E+02   1.839734E+02   1.859020E+02   1.905302E+02   1.899585E+02   1.839948E+02   1.720630E+02   1.638478E+02   1.619370E+02   1.671653E+02   1.701260E+02   1.714593E+02   1.721340E+02   1.641680E+02   1.445932E+02   1.379528E+02   1.329974E+02   1.329869E+02   1.360105E+02   1.286404E+02   1.297375E+02   1.405677E+02   1.406667E+02   1.264777E+02   1.191234E+02   1.161995E+02   1.157848E+02   1.123727E+02   1.053228E+02   1.221510E+02   1.381837E+02   1.446772E+02   1.473228E+02   1.468346E+02   1.533753E+02   1.582193E+02   1.628136E+02   1.544462E+02   1.380997E+02   1.377953E+02   1.377953E+02   1.377953E+02   1.377953E+02   1.401942E+02   1.532598E+02   1.563150E+02   1.337609E+02   1.227537E+02   1.212231E+02   9.859815E+01   1.026127E+02   1.108515E+02   1.011234E+02   9.819459E+01   9.519677E+01   1.067950E+02   9.939108E+01   8.507648E+01   8.816340E+01   8.862977E+01   9.097113E+01   8.909629E+01   8.682415E+01   9.285564E+01   1.236325E+02   1.127854E+02   8.301312E+01   7.976903E+01   8.928609E+01   9.021522E+01   9.604580E+01   8.902362E+01   7.727559E+01   1.132493E+02   1.372231E+02   1.197664E+02   1.030079E+02   9.938058E+01   9.298688E+01   8.722527E+01   6.740682E+01   3.625695E+01   3.861417E+01   4.364304E+01   2.798148E+01   2.364304E+01   1.626772E+01   2.089764E+01   3.728418E+01   4.103412E+01   3.639370E+01   3.809449E+01   4.749356E+01   4.829396E+01   5.325459E+01   6.145407E+01   6.573210E+01   6.923360E+01   4.052493E+01   1.848819E+01   1.667149E+01   1.333333E+01   1.144088E+01