# Name file for MODFLOW-2005, generated by Flopy version 3.2.9.
#xul:999987.84; yul:10817376.82; rotation:0; proj4_str:+proj=utm +zone=17 +north +ellps=GRS80 +towgs84=0,0,0,0,0,0,0 +units=ft +no_defs; units:feet; lenuni:1; length_multiplier:1.0 ;start_datetime:1-1-1970
LIST               2  test.list
DIS               11  test.dis 
BAS6              13  test.bas 
