# DIS package for  MODFLOW-2005, generated by Flopy.
         1       275       182         1         4         1
  0
CONSTANT    2.500000E+03                           #delr                          
CONSTANT    2.500000E+03                           #delc                          
INTERNAL               1 (182E15.6) -1 #model_top                     
   5.819798E+01   5.570844E+01   5.446223E+01   5.113952E+01   4.997883E+01   4.570747E+01   3.802206E+01   3.289321E+01   3.000855E+01   1.870626E+01   1.439750E+01   1.548955E+01   3.556382E+01   4.044268E+01   3.924651E+01   4.763357E+01   5.289710E+01   5.698260E+01   6.009279E+01   6.327495E+01   5.996300E+01   6.926264E+01   7.512759E+01   8.498738E+01   8.706699E+01   8.124871E+01   7.893905E+01   7.510464E+01   7.002616E+01   6.641791E+01   6.487522E+01   6.183024E+01   6.061715E+01   6.101746E+01   6.196846E+01   6.123183E+01   5.844899E+01   6.163877E+01   6.235383E+01   6.781322E+01   7.448400E+01   7.876542E+01   7.731890E+01   7.742985E+01   7.802791E+01   7.621916E+01   7.820309E+01   7.959758E+01   7.846277E+01   7.265806E+01   6.751229E+01   7.823184E+01   8.876219E+01   7.837154E+01   9.406950E+01   1.091703E+02   9.208340E+01   8.335945E+01   8.416187E+01   8.841556E+01   9.836680E+01   1.362965E+02   1.489182E+02   1.375376E+02   1.470217E+02   1.181325E+02   7.118000E+01   8.425278E+01   1.067513E+02   9.496698E+01   7.803584E+01   1.099562E+02   1.156436E+02   1.419292E+02   1.431637E+02   1.483119E+02   1.505504E+02   1.523772E+02   1.510051E+02   1.584025E+02   1.679739E+02   1.425774E+02   1.247902E+02   1.506277E+02   1.402384E+02   1.403332E+02   1.438943E+02   1.402080E+02   1.432639E+02   1.664789E+02   1.686552E+02   1.605456E+02   1.425912E+02   1.529099E+02   1.571524E+02   1.609390E+02   1.646562E+02   1.642245E+02   1.607099E+02   1.559448E+02   1.520807E+02   1.515197E+02   1.530437E+02   1.600577E+02   1.599585E+02   1.591604E+02   1.576449E+02   1.550363E+02   1.451506E+02   1.419114E+02   1.385453E+02   1.436555E+02   1.604246E+02   1.630444E+02   1.428428E+02   1.399657E+02   1.395891E+02   1.393220E+02   1.395203E+02   1.430025E+02   1.482822E+02   1.254700E+02   1.279161E+02   1.324495E+02   1.087700E+02   1.092845E+02   1.170251E+02   1.434832E+02   1.166978E+02   1.457684E+02   1.462594E+02   1.337511E+02   1.093460E+02   1.114920E+02   9.463180E+01   7.937071E+01   8.176334E+01   8.910739E+01   8.158882E+01   8.205680E+01   9.145061E+01   8.810026E+01   1.022904E+02   1.189701E+02   1.413498E+02   1.471210E+02   1.337334E+02   1.013497E+02   9.235564E+01   1.108169E+02   1.440593E+02   1.251293E+02   1.008038E+02   8.129397E+01   7.878082E+01   8.405849E+01   9.915079E+01   1.004298E+02   1.003183E+02   9.856718E+01   8.911393E+01   8.703571E+01   8.184006E+01   8.354532E+01   8.297743E+01   7.450613E+01   7.044913E+01   7.410716E+01   5.959804E+01   5.507500E+01   4.795726E+01   5.213975E+01   4.661583E+01   4.467303E+01   3.277053E+01   2.977164E+01   2.635973E+01   2.089712E+01   5.616433E+00   8.593619E+00   6.592816E+00   2.977695E+00
   5.451779E+01   5.336067E+01   5.145498E+01   4.935953E+01   4.677271E+01   4.243972E+01   3.629628E+01   3.423447E+01   2.766180E+01   1.461534E+01   1.376437E+01   2.320041E+01   4.360621E+01   4.564672E+01   4.805291E+01   4.990478E+01   5.292315E+01   5.958913E+01   6.453308E+01   6.585586E+01   5.927265E+01   6.842557E+01   7.990644E+01   8.391573E+01   8.577016E+01   8.226350E+01   8.093449E+01   7.797046E+01   7.262498E+01   6.500641E+01   6.503955E+01   6.578716E+01   6.762539E+01   6.567029E+01   6.593391E+01   6.697654E+01   6.251193E+01   6.358410E+01   6.940736E+01   6.980754E+01   7.136704E+01   7.619405E+01   8.309521E+01   8.151147E+01   8.135264E+01   8.132114E+01   7.594705E+01   7.675841E+01   7.858695E+01   7.576765E+01   7.411120E+01   7.939160E+01   8.573306E+01   8.359096E+01   1.013347E+02   1.043712E+02   1.029239E+02   8.859762E+01   8.703317E+01   8.854968E+01   9.677766E+01   1.167380E+02   1.513142E+02   1.491018E+02   1.366208E+02   1.003061E+02   7.577882E+01   7.310291E+01   7.347947E+01   7.732755E+01   8.258168E+01   8.661168E+01   1.070606E+02   1.250161E+02   1.303530E+02   1.559088E+02   1.700851E+02   1.663910E+02   1.616815E+02   1.660833E+02   1.739852E+02   1.694658E+02   1.412519E+02   1.400922E+02   1.594191E+02   1.512146E+02   1.489597E+02   1.466136E+02   1.553360E+02   1.731659E+02   1.668496E+02   1.487777E+02   1.443169E+02   1.623010E+02   1.630072E+02   1.616647E+02   1.627254E+02   1.641813E+02   1.611955E+02   1.509180E+02   1.498083E+02   1.508501E+02   1.539379E+02   1.615838E+02   1.612581E+02   1.588887E+02   1.564798E+02   1.537645E+02   1.474552E+02   1.410035E+02   1.376949E+02   1.432892E+02   1.623181E+02   1.610614E+02   1.517039E+02   1.398001E+02   1.391047E+02   1.385367E+02   1.412249E+02   1.440798E+02   1.514920E+02   1.478023E+02   1.507572E+02   1.361535E+02   1.386868E+02   1.271296E+02   1.383957E+02   1.674421E+02   1.675227E+02   1.544140E+02   1.399695E+02   1.337730E+02   1.474163E+02   1.080636E+02   8.922076E+01   8.449440E+01   9.022683E+01   9.129653E+01   8.902768E+01   9.480103E+01   9.421682E+01   9.211735E+01   9.478232E+01   9.619995E+01   1.168818E+02   1.486305E+02   1.379465E+02   9.834019E+01   9.235564E+01   9.571063E+01   1.313771E+02   1.348331E+02   1.046654E+02   9.604558E+01   7.094669E+01   9.202201E+01   9.968519E+01   1.003961E+02   1.015772E+02   9.882106E+01   8.902343E+01   8.686074E+01   7.965185E+01   7.662173E+01   7.458167E+01   7.286679E+01   5.984827E+01   6.079258E+01   5.079966E+01   4.739347E+01   4.148319E+01   5.292378E+01   4.964076E+01   4.329111E+01   3.306944E+01   2.725908E+01   2.507248E+01   1.972848E+01   3.165099E+00   8.567087E+00   8.843543E+00   8.786582E+00
   5.303822E+01   5.239954E+01   5.061973E+01   4.835637E+01   4.667022E+01   4.367063E+01   3.306785E+01   3.285123E+01   2.490661E+01   1.235924E+01   1.746987E+01   2.512717E+01   4.526480E+01   5.103219E+01   5.214045E+01   5.238307E+01   5.066160E+01   5.110185E+01   6.237539E+01   5.553204E+01   5.993403E+01   6.477539E+01   7.730200E+01   7.901723E+01   8.654595E+01   8.519628E+01   8.167435E+01   8.010800E+01   7.303437E+01   6.766235E+01   6.597388E+01   6.720325E+01   6.671276E+01   6.522076E+01   6.361872E+01   6.930171E+01   6.193190E+01   6.770626E+01   7.224348E+01   6.748896E+01   6.679886E+01   6.968190E+01   7.479375E+01   8.104414E+01   8.457624E+01   8.250273E+01   7.760187E+01   7.544282E+01   7.587161E+01   7.928816E+01   7.927391E+01   7.870165E+01   7.855803E+01   8.359840E+01   9.034967E+01   9.421987E+01   9.534784E+01   8.900638E+01   8.546335E+01   8.953497E+01   9.400927E+01   9.693992E+01   1.001462E+02   9.348033E+01   8.732349E+01   8.038336E+01   7.967725E+01   7.995949E+01   6.935498E+01   8.113728E+01   8.366005E+01   1.123672E+02   1.171325E+02   1.415049E+02   1.388364E+02   1.487791E+02   1.644588E+02   1.696009E+02   1.712309E+02   1.765870E+02   1.760172E+02   1.634792E+02   1.532283E+02   1.387908E+02   1.605941E+02   1.598086E+02   1.592327E+02   1.556832E+02   1.636296E+02   1.718418E+02   1.638590E+02   1.553628E+02   1.514261E+02   1.596385E+02   1.646320E+02   1.648893E+02   1.655897E+02   1.643294E+02   1.567961E+02   1.457597E+02   1.472646E+02   1.519941E+02   1.536032E+02   1.600095E+02   1.615959E+02   1.587581E+02   1.540031E+02   1.541014E+02   1.464211E+02   1.398222E+02   1.361085E+02   1.381397E+02   1.533822E+02   1.559705E+02   1.490386E+02   1.490676E+02   1.364675E+02   1.393573E+02   1.511920E+02   1.494718E+02   1.532757E+02   1.527427E+02   1.552298E+02   1.441115E+02   1.390656E+02   1.340406E+02   1.438482E+02   1.550049E+02   1.630000E+02   1.432897E+02   1.288883E+02   1.101839E+02   1.255757E+02   1.243771E+02   9.557521E+01   9.016216E+01   9.529199E+01   8.931188E+01   9.278107E+01   9.307897E+01   8.189896E+01   8.250542E+01   7.839955E+01   8.137869E+01   1.019456E+02   1.415883E+02   1.505964E+02   1.044647E+02   9.564010E+01   9.803472E+01   1.275339E+02   1.294696E+02   1.145290E+02   9.839412E+01   6.795743E+01   8.729216E+01   9.467444E+01   9.954482E+01   9.924375E+01   9.761381E+01   8.608776E+01   8.517393E+01   8.387040E+01   7.324931E+01   6.631481E+01   7.091941E+01   5.688286E+01   4.299423E+01   4.165996E+01   4.348885E+01   3.987821E+01   5.483092E+01   5.387046E+01   4.512567E+01   4.033917E+01   2.256509E+01   1.726838E+01   1.014770E+01   9.331120E-01   1.190914E+01   1.336749E+01   1.019992E+01
   5.120286E+01   5.154587E+01   4.935500E+01   4.713451E+01   4.826223E+01   4.326812E+01   3.474154E+01   2.896706E+01   1.798672E+01   1.239009E+01   1.628965E+01   2.079308E+01   4.706162E+01   5.063325E+01   5.465712E+01   5.461574E+01   5.302451E+01   6.092876E+01   6.473900E+01   6.287378E+01   5.979365E+01   6.347671E+01   6.982501E+01   7.256311E+01   8.095162E+01   8.328887E+01   8.156709E+01   8.024337E+01   7.497715E+01   6.938052E+01   6.831392E+01   6.711409E+01   6.670132E+01   6.477004E+01   6.331420E+01   6.495000E+01   6.602481E+01   6.970160E+01   6.654190E+01   6.444542E+01   6.468430E+01   6.354691E+01   7.508284E+01   8.579629E+01   7.980631E+01   7.879793E+01   7.739126E+01   7.813939E+01   7.710864E+01   7.840477E+01   8.256748E+01   7.656239E+01   7.401119E+01   8.469528E+01   8.411697E+01   8.850786E+01   8.703818E+01   8.902135E+01   9.136982E+01   8.719456E+01   8.736115E+01   8.710354E+01   8.892498E+01   8.994725E+01   9.202494E+01   1.029753E+02   9.544797E+01   1.025911E+02   9.009776E+01   8.249214E+01   8.297760E+01   1.043727E+02   8.879547E+01   1.401334E+02   1.426783E+02   1.444533E+02   1.639317E+02   1.715947E+02   1.753697E+02   1.803190E+02   1.804493E+02   1.757271E+02   1.668557E+02   1.644074E+02   1.497752E+02   1.493765E+02   1.659380E+02   1.672837E+02   1.687083E+02   1.733175E+02   1.676757E+02   1.626621E+02   1.555961E+02   1.607789E+02   1.640826E+02   1.638611E+02   1.652595E+02   1.603375E+02   1.489118E+02   1.447505E+02   1.448206E+02   1.507387E+02   1.517620E+02   1.579378E+02   1.617801E+02   1.579854E+02   1.516555E+02   1.394810E+02   1.411383E+02   1.419158E+02   1.378907E+02   1.354740E+02   1.514829E+02   1.634319E+02   1.575809E+02   1.517565E+02   1.358494E+02   1.344803E+02   1.352540E+02   1.445624E+02   1.508373E+02   1.496440E+02   1.489287E+02   1.259678E+02   1.446002E+02   9.721885E+01   9.644360E+01   1.368483E+02   1.315859E+02   1.184822E+02   1.361156E+02   1.315782E+02   1.360333E+02   1.318899E+02   1.213287E+02   9.664353E+01   9.009819E+01   9.494836E+01   1.142799E+02   9.842701E+01   9.415417E+01   8.642378E+01   7.940926E+01   8.406276E+01   8.404876E+01   1.197393E+02   1.553418E+02   1.240475E+02   1.269237E+02   1.006924E+02   1.082180E+02   1.153064E+02   1.197268E+02   1.062948E+02   7.148385E+01   7.485931E+01   9.086631E+01   1.001501E+02   9.623843E+01   9.726906E+01   8.923141E+01   8.752549E+01   8.590287E+01   8.009558E+01   6.224310E+01   5.185399E+01   4.368900E+01   3.523453E+01   3.564442E+01   3.561576E+01   4.076783E+01   5.344514E+01   4.716370E+01   5.149683E+01   3.912064E+01   2.297655E+01   1.674283E+01   1.010621E+01   7.424589E+00   7.586936E+00   1.483506E+01   1.285682E+01
   5.159916E+01   4.893160E+01   4.874294E+01   4.678186E+01   4.625500E+01   3.951212E+01   3.354623E+01   2.357098E+01   1.452668E+01   1.455273E+01   1.666846E+01   2.015566E+01   4.108185E+01   5.009010E+01   5.565098E+01   5.695371E+01   5.806329E+01   6.178189E+01   6.407686E+01   6.425622E+01   5.698460E+01   6.763714E+01   7.364854E+01   7.148075E+01   7.718046E+01   8.005858E+01   8.064268E+01   8.088575E+01   7.790774E+01   7.179376E+01   6.927639E+01   6.804815E+01   6.818115E+01   6.548003E+01   7.056117E+01   6.547171E+01   6.148385E+01   7.247555E+01   7.937249E+01   6.826452E+01   6.674803E+01   6.476611E+01   8.282529E+01   8.970254E+01   7.501478E+01   7.690991E+01   7.890709E+01   7.967487E+01   7.671009E+01   6.995368E+01   7.910473E+01   8.475170E+01   7.600707E+01   8.576742E+01   8.566075E+01   8.937187E+01   9.212533E+01   9.059454E+01   9.411230E+01   8.641552E+01   8.918235E+01   8.753829E+01   9.056324E+01   9.131255E+01   1.077643E+02   1.248061E+02   1.337917E+02   1.412565E+02   1.114611E+02   1.145633E+02   1.186236E+02   1.195512E+02   9.814329E+01   1.162820E+02   1.273869E+02   1.447791E+02   1.530188E+02   1.673122E+02   1.824885E+02   1.829656E+02   1.865277E+02   1.835937E+02   1.764758E+02   1.714611E+02   1.641056E+02   1.543188E+02   1.682341E+02   1.745912E+02   1.710246E+02   1.747322E+02   1.710564E+02   1.671992E+02   1.626322E+02   1.608630E+02   1.650696E+02   1.645967E+02   1.643800E+02   1.579662E+02   1.466261E+02   1.435941E+02   1.451868E+02   1.475431E+02   1.492845E+02   1.553184E+02   1.591770E+02   1.529009E+02   1.438697E+02   1.381121E+02   1.428023E+02   1.401597E+02   1.492208E+02   1.462629E+02   1.547897E+02   1.517453E+02   1.530848E+02   1.493430E+02   1.372719E+02   1.344160E+02   1.344160E+02   1.421718E+02   1.445649E+02   1.473862E+02   1.413929E+02   1.011417E+02   1.070231E+02   9.238249E+01   8.383688E+01   1.003158E+02   1.458210E+02   1.221811E+02   1.216484E+02   1.305179E+02   1.240074E+02   1.355041E+02   1.070090E+02   9.021187E+01   8.945593E+01   1.020478E+02   1.058605E+02   9.539584E+01   9.356639E+01   8.630109E+01   8.629825E+01   8.500145E+01   8.209110E+01   1.030032E+02   1.504375E+02   1.527323E+02   1.363295E+02   9.121856E+01   8.155401E+01   9.469451E+01   1.067317E+02   1.182904E+02   9.333680E+01   6.193024E+01   9.418832E+01   9.752839E+01   9.076539E+01   9.747430E+01   9.135752E+01   8.909320E+01   8.650222E+01   7.892180E+01   6.844136E+01   5.766518E+01   3.467396E+01   3.063953E+01   4.347166E+01   4.346595E+01   3.718264E+01   4.445674E+01   5.096301E+01   5.241420E+01   3.351460E+01   2.867966E+01   2.732167E+01   2.115313E+01   1.581911E+01   1.521628E+01   1.670417E+01   1.445046E+01
   4.981242E+01   5.111919E+01   4.597790E+01   4.565654E+01   4.375235E+01   3.693434E+01   2.828757E+01   2.104296E+01   1.702670E+01   1.329803E+01   1.544969E+01   2.938331E+01   4.292810E+01   5.236306E+01   5.526534E+01   5.808906E+01   6.080698E+01   6.240785E+01   6.467048E+01   6.635730E+01   6.759916E+01   7.055694E+01   7.894312E+01   7.424734E+01   7.887564E+01   7.838076E+01   8.060156E+01   8.193480E+01   8.014379E+01   7.508828E+01   7.145627E+01   7.112366E+01   7.039937E+01   6.830450E+01   7.126881E+01   6.875711E+01   6.629911E+01   7.482379E+01   7.352315E+01   7.062180E+01   6.977664E+01   7.842921E+01   9.011140E+01   9.063919E+01   7.759231E+01   7.932788E+01   8.036462E+01   7.652553E+01   7.088780E+01   7.125886E+01   7.689709E+01   8.155837E+01   7.801316E+01   8.645437E+01   8.962125E+01   9.223869E+01   9.003658E+01   9.285093E+01   9.206112E+01   8.751044E+01   9.148504E+01   9.071676E+01   9.148342E+01   9.534809E+01   1.046134E+02   1.123980E+02   1.375094E+02   1.409446E+02   1.498586E+02   1.594679E+02   1.657531E+02   1.533667E+02   1.471243E+02   1.191620E+02   1.198747E+02   1.277916E+02   1.431440E+02   1.735301E+02   1.791243E+02   1.765992E+02   1.869410E+02   1.858826E+02   1.804293E+02   1.721796E+02   1.643019E+02   1.556332E+02   1.621334E+02   1.730113E+02   1.744774E+02   1.751702E+02   1.725263E+02   1.688734E+02   1.648990E+02   1.651291E+02   1.682893E+02   1.685878E+02   1.680761E+02   1.585899E+02   1.460691E+02   1.444466E+02   1.473481E+02   1.482036E+02   1.507181E+02   1.522979E+02   1.540877E+02   1.477503E+02   1.395597E+02   1.285405E+02   1.332557E+02   1.383317E+02   1.537321E+02   1.680867E+02   1.697564E+02   1.571173E+02   1.583917E+02   1.519315E+02   1.485207E+02   1.380583E+02   1.369036E+02   1.394623E+02   1.468191E+02   1.459147E+02   1.307043E+02   1.151528E+02   9.821233E+01   9.512001E+01   8.273036E+01   8.625346E+01   1.064823E+02   1.289613E+02   1.182627E+02   1.346508E+02   1.468104E+02   1.449298E+02   1.013288E+02   9.094529E+01   8.997406E+01   8.769438E+01   9.385941E+01   8.774323E+01   8.663678E+01   8.151274E+01   7.944279E+01   7.806422E+01   7.971906E+01   8.307431E+01   1.193444E+02   1.640859E+02   1.520090E+02   1.188226E+02   8.654748E+01   7.967475E+01   1.079162E+02   1.298093E+02   1.017619E+02   7.780735E+01   6.210110E+01   8.296018E+01   7.513722E+01   9.276683E+01   8.794715E+01   8.809435E+01   8.646239E+01   7.672565E+01   6.698903E+01   5.474237E+01   2.987429E+01   3.010951E+01   4.138777E+01   4.175637E+01   3.928447E+01   5.033090E+01   5.536803E+01   5.019810E+01   3.138884E+01   2.555958E+01   2.556017E+01   2.043788E+01   1.867636E+01   1.886643E+01   1.835903E+01   1.555718E+01
   4.859707E+01   4.996008E+01   5.120291E+01   4.642672E+01   4.276184E+01   3.425792E+01   2.985495E+01   1.745506E+01   1.803676E+01   1.444952E+01   1.641833E+01   3.366575E+01   4.642181E+01   5.093121E+01   5.562106E+01   5.843632E+01   6.060341E+01   6.200604E+01   6.458014E+01   6.441274E+01   6.917128E+01   7.266076E+01   7.569603E+01   7.514982E+01   7.563124E+01   7.929889E+01   8.211419E+01   8.348671E+01   8.123411E+01   7.596166E+01   7.262377E+01   7.153643E+01   7.617407E+01   6.860818E+01   7.608929E+01   6.796786E+01   7.320140E+01   8.530247E+01   8.374716E+01   7.776582E+01   7.756486E+01   8.743375E+01   8.460324E+01   9.280713E+01   8.944848E+01   8.507231E+01   7.738868E+01   7.285406E+01   7.413463E+01   7.320311E+01   7.776045E+01   8.397871E+01   8.151818E+01   8.462746E+01   9.089869E+01   8.715543E+01   9.062325E+01   9.501830E+01   9.069632E+01   8.798368E+01   8.670522E+01   9.088332E+01   9.084121E+01   1.026177E+02   1.218387E+02   1.349190E+02   1.430120E+02   1.606396E+02   1.665259E+02   1.582887E+02   9.013899E+01   8.988554E+01   8.900719E+01   9.860837E+01   1.465616E+02   1.482592E+02   1.414202E+02   1.631280E+02   1.697574E+02   1.694790E+02   1.853654E+02   1.872652E+02   1.846115E+02   1.738617E+02   1.674362E+02   1.661254E+02   1.702946E+02   1.708907E+02   1.741622E+02   1.739030E+02   1.737271E+02   1.705039E+02   1.682736E+02   1.686529E+02   1.691749E+02   1.689506E+02   1.656061E+02   1.531832E+02   1.452483E+02   1.452013E+02   1.452573E+02   1.511085E+02   1.560319E+02   1.542293E+02   1.447837E+02   1.354164E+02   1.310397E+02   1.197918E+02   1.233543E+02   1.213375E+02   1.401498E+02   1.606238E+02   1.693997E+02   1.691895E+02   1.676246E+02   1.656977E+02   1.693393E+02   1.414295E+02   1.369872E+02   1.344160E+02   1.369482E+02   1.505150E+02   1.469762E+02   1.495010E+02   1.285632E+02   1.152686E+02   9.430700E+01   9.426582E+01   1.037480E+02   1.213830E+02   9.665989E+01   1.132086E+02   1.442040E+02   1.445113E+02   1.048269E+02   8.876899E+01   9.057808E+01   9.326678E+01   1.494302E+02   1.010057E+02   8.300525E+01   7.673850E+01   7.915657E+01   7.612531E+01   8.661782E+01   8.040822E+01   1.028075E+02   1.472849E+02   1.573941E+02   1.499701E+02   1.322863E+02   1.019024E+02   9.837603E+01   9.921323E+01   8.233238E+01   7.340275E+01   5.693006E+01   4.917185E+01   6.875101E+01   8.779652E+01   7.650060E+01   8.528119E+01   8.452653E+01   7.708212E+01   5.826771E+01   4.163466E+01   2.429835E+01   3.486672E+01   4.452396E+01   3.988410E+01   3.845079E+01   4.510868E+01   5.215024E+01   4.543300E+01   3.661947E+01   2.398240E+01   2.075249E+01   3.083118E+01   1.902133E+01   1.900421E+01   1.751831E+01   1.575564E+01
   4.768250E+01   4.947897E+01   4.719006E+01   4.508991E+01   4.153111E+01   3.360668E+01   2.955246E+01   1.633071E+01   1.339294E+01   1.123534E+01   2.326368E+01   3.629043E+01   4.720309E+01   5.164586E+01   5.626841E+01   5.801794E+01   6.020617E+01   6.182657E+01   6.343642E+01   6.375288E+01   7.026762E+01   7.385837E+01   7.638547E+01   7.784738E+01   7.815280E+01   8.184093E+01   8.446718E+01   8.547028E+01   8.394016E+01   7.887070E+01   7.296181E+01   7.204204E+01   7.697460E+01   7.209906E+01   7.385511E+01   7.784962E+01   7.029204E+01   7.203208E+01   8.888282E+01   8.434445E+01   8.158755E+01   8.523554E+01   8.662331E+01   9.679641E+01   8.340251E+01   8.392404E+01   8.196541E+01   7.436474E+01   7.475000E+01   7.448008E+01   7.633690E+01   8.392844E+01   8.630262E+01   8.377460E+01   9.118956E+01   8.991524E+01   8.499268E+01   9.194107E+01   8.586408E+01   8.526646E+01   8.626299E+01   8.882161E+01   8.985661E+01   1.020071E+02   1.073780E+02   1.327517E+02   1.568694E+02   1.603403E+02   1.550766E+02   1.586237E+02   1.356219E+02   1.159262E+02   9.282721E+01   9.726728E+01   1.464119E+02   1.590171E+02   1.556966E+02   1.432639E+02   1.549201E+02   1.660266E+02   1.815050E+02   1.886979E+02   1.888870E+02   1.840674E+02   1.793639E+02   1.746590E+02   1.747711E+02   1.711958E+02   1.683816E+02   1.728688E+02   1.722441E+02   1.738354E+02   1.712283E+02   1.694966E+02   1.669029E+02   1.663419E+02   1.600962E+02   1.496189E+02   1.461000E+02   1.405141E+02   1.438462E+02   1.577462E+02   1.556679E+02   1.455855E+02   1.400197E+02   1.270123E+02   1.190761E+02   1.086072E+02   1.132935E+02   1.253840E+02   1.432446E+02   1.573413E+02   1.617757E+02   1.586577E+02   1.607142E+02   1.687244E+02   1.627011E+02   1.401525E+02   1.369688E+02   1.344160E+02   1.344160E+02   1.361464E+02   1.491366E+02   1.501770E+02   1.520081E+02   1.371926E+02   1.098002E+02   1.053713E+02   1.326811E+02   1.061869E+02   9.489347E+01   1.169554E+02   1.249114E+02   1.324078E+02   1.107687E+02   1.173049E+02   9.370818E+01   1.398359E+02   1.499389E+02   1.174056E+02   8.499944E+01   7.676909E+01   8.125405E+01   8.008435E+01   7.899488E+01   8.285176E+01   9.056585E+01   1.007486E+02   1.364538E+02   1.523735E+02   1.259275E+02   1.012618E+02   8.987887E+01   1.161281E+02   1.090509E+02   9.150639E+01   8.027381E+01   8.591745E+01   4.979670E+01   7.495612E+01   6.264307E+01   8.007244E+01   8.090362E+01   6.948447E+01   4.660207E+01   2.721589E+01   2.572017E+01   3.720658E+01   4.438123E+01   4.003061E+01   3.899101E+01   4.694839E+01   4.977651E+01   5.049319E+01   5.062096E+01   2.680389E+01   2.149680E+01   3.998341E+01   2.014983E+01   1.931624E+01   1.489081E+01   1.223239E+01
   4.756721E+01   4.603768E+01   4.376403E+01   4.081254E+01   3.889877E+01   3.407565E+01   2.795836E+01   1.795997E+01   1.313151E+01   1.215473E+01   2.621673E+01   3.888927E+01   4.984600E+01   5.264747E+01   5.597088E+01   5.143413E+01   5.824326E+01   6.136019E+01   6.196840E+01   6.149360E+01   6.813776E+01   7.201724E+01   7.569528E+01   7.803439E+01   8.017916E+01   8.561273E+01   8.692545E+01   8.703686E+01   8.441122E+01   8.118955E+01   7.638225E+01   7.280598E+01   7.431806E+01   7.342719E+01   7.215448E+01   7.864568E+01   7.494405E+01   7.159773E+01   8.014075E+01   8.417765E+01   8.757113E+01   8.566991E+01   9.159906E+01   9.110271E+01   8.165936E+01   8.376372E+01   8.067162E+01   7.851344E+01   7.224950E+01   7.658717E+01   7.575832E+01   7.895602E+01   8.489710E+01   9.185708E+01   8.597134E+01   9.380425E+01   9.025890E+01   8.706047E+01   8.367136E+01   8.368509E+01   9.015023E+01   9.196513E+01   9.408844E+01   9.429776E+01   1.285921E+02   1.156801E+02   1.288126E+02   1.464256E+02   1.740378E+02   1.724409E+02   1.687088E+02   1.547134E+02   1.437326E+02   1.050456E+02   1.071557E+02   1.515394E+02   1.762530E+02   1.731597E+02   1.856085E+02   1.750076E+02   1.798495E+02   1.842309E+02   1.891504E+02   1.885090E+02   1.840732E+02   1.782466E+02   1.700143E+02   1.643373E+02   1.669797E+02   1.719034E+02   1.737325E+02   1.737479E+02   1.695292E+02   1.607586E+02   1.557216E+02   1.542767E+02   1.533523E+02   1.477549E+02   1.401323E+02   1.366297E+02   1.345930E+02   1.557326E+02   1.516688E+02   1.376353E+02   1.250407E+02   1.199580E+02   1.188122E+02   1.116459E+02   1.181918E+02   1.377894E+02   1.520226E+02   1.549492E+02   1.516035E+02   1.466980E+02   1.572381E+02   1.681820E+02   1.628960E+02   1.401476E+02   1.370678E+02   1.344160E+02   1.344160E+02   1.344160E+02   1.465764E+02   1.494327E+02   1.523571E+02   1.327078E+02   1.111688E+02   1.230839E+02   1.266588E+02   1.240672E+02   1.000275E+02   1.039796E+02   1.122170E+02   1.000103E+02   1.041104E+02   1.113210E+02   8.892601E+01   1.233443E+02   1.063526E+02   1.024985E+02   8.712418E+01   7.876837E+01   8.512329E+01   9.752020E+01   8.372584E+01   7.419652E+01   8.114920E+01   8.865551E+01   1.025928E+02   1.350291E+02   1.111903E+02   8.633644E+01   1.092931E+02   1.269988E+02   1.209980E+02   9.691286E+01   9.297542E+01   9.519054E+01   7.091190E+01   3.690217E+01   4.682360E+01   6.964007E+01   6.658714E+01   4.577599E+01   3.148606E+01   1.957827E+01   2.841590E+01   4.261141E+01   4.742121E+01   4.217063E+01   4.321296E+01   5.052073E+01   5.433655E+01   5.087894E+01   5.260170E+01   3.402492E+01   3.530916E+01   3.088104E+01   2.202471E+01   1.979459E+01   1.648383E+01   1.083254E+01
   4.621302E+01   4.255869E+01   3.716629E+01   3.965649E+01   3.628061E+01   3.147953E+01   2.624436E+01   1.724447E+01   1.170071E+01   1.356914E+01   2.682815E+01   4.064103E+01   4.767644E+01   5.366051E+01   5.515503E+01   5.576878E+01   5.632067E+01   5.889697E+01   6.156458E+01   6.294817E+01   6.706884E+01   7.262891E+01   7.361866E+01   7.807703E+01   8.227948E+01   8.618585E+01   8.891910E+01   8.872316E+01   8.452192E+01   8.320774E+01   8.147990E+01   7.746506E+01   7.651143E+01   7.330954E+01   8.023400E+01   7.951697E+01   8.100393E+01   7.951879E+01   7.457010E+01   7.250039E+01   8.689272E+01   8.952473E+01   8.940425E+01   8.583251E+01   8.233152E+01   8.471495E+01   8.259423E+01   8.606601E+01   7.747179E+01   7.883645E+01   7.676473E+01   7.635395E+01   8.041961E+01   8.404453E+01   8.188427E+01   9.352047E+01   9.390631E+01   8.909084E+01   8.815202E+01   8.346223E+01   8.731510E+01   8.711585E+01   1.010811E+02   1.210424E+02   1.152142E+02   9.511858E+01   1.326782E+02   1.597843E+02   1.471743E+02   1.444015E+02   1.461052E+02   1.528867E+02   1.678131E+02   1.438912E+02   1.349370E+02   1.590893E+02   1.773375E+02   1.821588E+02   1.906775E+02   1.904565E+02   1.853856E+02   1.872144E+02   1.919553E+02   1.910829E+02   1.854859E+02   1.735155E+02   1.656673E+02   1.645067E+02   1.691692E+02   1.719919E+02   1.734180E+02   1.733261E+02   1.656101E+02   1.455476E+02   1.395090E+02   1.345829E+02   1.350116E+02   1.384876E+02   1.307864E+02   1.325188E+02   1.406954E+02   1.413336E+02   1.269878E+02   1.204391E+02   1.176288E+02   1.173913E+02   1.137382E+02   1.068623E+02   1.241565E+02   1.402248E+02   1.466217E+02   1.490179E+02   1.483219E+02   1.546978E+02   1.600806E+02   1.647063E+02   1.554911E+02   1.402795E+02   1.370874E+02   1.344160E+02   1.344160E+02   1.344160E+02   1.393213E+02   1.553254E+02   1.592117E+02   1.321630E+02   1.209188E+02   1.213146E+02   8.826748E+01   9.783556E+01   1.108319E+02   9.402160E+01   9.774415E+01   9.131743E+01   1.072153E+02   9.989361E+01   8.608956E+01   9.084197E+01   9.226698E+01   9.273073E+01   8.732264E+01   8.530319E+01   9.399662E+01   1.240407E+02   1.114788E+02   7.779176E+01   7.907157E+01   8.676897E+01   8.658597E+01   9.954373E+01   8.912575E+01   8.074361E+01   1.145398E+02   1.384486E+02   1.217859E+02   1.016499E+02   9.904206E+01   9.346966E+01   8.694258E+01   6.989113E+01   3.650305E+01   4.298238E+01   4.784145E+01   3.101603E+01   2.560694E+01   1.825898E+01   2.366555E+01   3.972722E+01   4.224653E+01   3.856640E+01   4.079107E+01   4.959088E+01   5.047567E+01   5.518286E+01   6.326587E+01   6.600546E+01   7.029032E+01   4.311486E+01   1.999520E+01   1.823898E+01   1.461160E+01   1.110829E+01